# File generated by Flopy version 3.8.2 on 01/21/2025 at 15:49:47.
BEGIN options
#  BUDGET  FILEOUT  ex-gwf-sagehen.bud
  HEAD  FILEOUT  ex-gwf-sagehen.hds
  HEAD  PRINT_FORMAT  COLUMNS  10  WIDTH  15  DIGITS  6  GENERAL
END options

BEGIN period  1
  SAVE  HEAD  LAST
#  SAVE  BUDGET  LAST
  PRINT  HEAD  LAST
  PRINT  BUDGET  LAST
END period  1

