# File generated by Flopy version 3.8.2 on 01/21/2025 at 15:49:47.
BEGIN options
END options

BEGIN continuous  FILEOUT  str_flows.csv
  StreamOutlet  inflow  213
END continuous  FILEOUT  str_flows.csv

