# File generated by Flopy version 3.8.2 on 01/21/2025 at 15:49:47.
BEGIN options
  ALTERNATIVE_CELL_AVERAGING  amt-hmk
END options

BEGIN griddata
  icelltype
    CONSTANT  1
  k
    OPEN/CLOSE 'kh1.txt' FACTOR  1.0
  k33
    OPEN/CLOSE 'kv1.txt' FACTOR  1.0
END griddata

