pcf
* control data
             restart          estimation
     13548       399         4         0         1
         4         1              single               point         1
   2.000000E+01  -3.000000E+00   3.000000E-01   1.000000E-02        -7
   1.000000E+01   1.000000E+01   1.000000E-03
   1.000000E-01
         0   1.000000E-02         3         3   1.000000E-02         3
         0         0         0
* singular value decomposition
         1
  10000000    1.000000E-06
1
* parameter groups
kh1gr                  relative              1.0000000000E-02      0.0 switch                2.0000000000E+00      parabolic             1.0000000000E-05      5.0000000000E-01      smaller              
kv1gr                  relative              1.0000000000E-02      0.0 switch                2.0000000000E+00      parabolic             1.0000000000E-05      5.0000000000E-01      smaller              
sy1gr                  relative              1.0000000000E-02      0.0 switch                2.0000000000E+00      parabolic             1.0000000000E-05      5.0000000000E-01      smaller              
strt1gr                relative              1.0000000000E-02      0.0 switch                2.0000000000E+00      parabolic             1.0000000000E-05      5.0000000000E-01      smaller              
* parameter data
   pname:kh1gr_inst:0_ptype:gr_pstyle:m_i:0_j:63_x:5715.00_y:6525.00_zone:1  log                   factor                1.0000000000E+00      2.0000000000E-01      5.0000000000E+00      kh1gr                 1.0000000000E+00      0.0000000000E+00      1          
   pname:kh1gr_inst:0_ptype:gr_pstyle:m_i:0_j:64_x:5805.00_y:6525.00_zone:1  log                   factor                1.0000000000E+00      2.0000000000E-01      5.0000000000E+00      kh1gr                 1.0000000000E+00      0.0000000000E+00      1          
   pname:kh1gr_inst:0_ptype:gr_pstyle:m_i:1_j:62_x:5625.00_y:6435.00_zone:1  log                   factor                1.0000000000E+00      2.0000000000E-01      5.0000000000E+00      kh1gr                 1.0000000000E+00      0.0000000000E+00      1          
   pname:kh1gr_inst:0_ptype:gr_pstyle:m_i:1_j:63_x:5715.00_y:6435.00_zone:1  log                   factor                1.0000000000E+00      2.0000000000E-01      5.0000000000E+00      kh1gr                 1.0000000000E+00      0.0000000000E+00      1          
   pname:kh1gr_inst:0_ptype:gr_pstyle:m_i:1_j:64_x:5805.00_y:6435.00_zone:1  log                   factor                1.0000000000E+00      2.0000000000E-01      5.0000000000E+00      kh1gr                 1.0000000000E+00      0.0000000000E+00      1          
   pname:kh1gr_inst:0_ptype:gr_pstyle:m_i:2_j:62_x:5625.00_y:6345.00_zone:1  log                   factor                1.0000000000E+00      2.0000000000E-01      5.0000000000E+00      kh1gr                 1.0000000000E+00      0.0000000000E+00      1          
   pname:kh1gr_inst:0_ptype:gr_pstyle:m_i:2_j:63_x:5715.00_y:6345.00_zone:1  log                   factor                1.0000000000E+00      2.0000000000E-01      5.0000000000E+00      kh1gr                 1.0000000000E+00      0.0000000000E+00      1          
   pname:kh1gr_inst:0_ptype:gr_pstyle:m_i:2_j:64_x:5805.00_y:6345.00_zone:1  log                   factor                1.0000000000E+00      2.0000000000E-01      5.0000000000E+00      kh1gr                 1.0000000000E+00      0.0000000000E+00      1          
   pname:kh1gr_inst:0_ptype:gr_pstyle:m_i:3_j:61_x:5535.00_y:6255.00_zone:1  log                   factor                1.0000000000E+00      2.0000000000E-01      5.0000000000E+00      kh1gr                 1.0000000000E+00      0.0000000000E+00      1          
   pname:kh1gr_inst:0_ptype:gr_pstyle:m_i:3_j:62_x:5625.00_y:6255.00_zone:1  log                   factor                1.0000000000E+00      2.0000000000E-01      5.0000000000E+00      kh1gr                 1.0000000000E+00      0.0000000000E+00      1          
   pname:kh1gr_inst:0_ptype:gr_pstyle:m_i:3_j:63_x:5715.00_y:6255.00_zone:1  log                   factor                1.0000000000E+00      2.0000000000E-01      5.0000000000E+00      kh1gr                 1.0000000000E+00      0.0000000000E+00      1          
   pname:kh1gr_inst:0_ptype:gr_pstyle:m_i:3_j:64_x:5805.00_y:6255.00_zone:1  log                   factor                1.0000000000E+00      2.0000000000E-01      5.0000000000E+00      kh1gr                 1.0000000000E+00      0.0000000000E+00      1          
   pname:kh1gr_inst:0_ptype:gr_pstyle:m_i:4_j:61_x:5535.00_y:6165.00_zone:1  log                   factor                1.0000000000E+00      2.0000000000E-01      5.0000000000E+00      kh1gr                 1.0000000000E+00      0.0000000000E+00      1          
   pname:kh1gr_inst:0_ptype:gr_pstyle:m_i:4_j:62_x:5625.00_y:6165.00_zone:1  log                   factor                1.0000000000E+00      2.0000000000E-01      5.0000000000E+00      kh1gr                 1.0000000000E+00      0.0000000000E+00      1          
   pname:kh1gr_inst:0_ptype:gr_pstyle:m_i:4_j:63_x:5715.00_y:6165.00_zone:1  log                   factor                1.0000000000E+00      2.0000000000E-01      5.0000000000E+00      kh1gr                 1.0000000000E+00      0.0000000000E+00      1          
   pname:kh1gr_inst:0_ptype:gr_pstyle:m_i:4_j:64_x:5805.00_y:6165.00_zone:1  log                   factor                1.0000000000E+00      2.0000000000E-01      5.0000000000E+00      kh1gr                 1.0000000000E+00      0.0000000000E+00      1          
   pname:kh1gr_inst:0_ptype:gr_pstyle:m_i:4_j:65_x:5895.00_y:6165.00_zone:1  log                   factor                1.0000000000E+00      2.0000000000E-01      5.0000000000E+00      kh1gr                 1.0000000000E+00      0.0000000000E+00      1          
   pname:kh1gr_inst:0_ptype:gr_pstyle:m_i:5_j:61_x:5535.00_y:6075.00_zone:1  log                   factor                1.0000000000E+00      2.0000000000E-01      5.0000000000E+00      kh1gr                 1.0000000000E+00      0.0000000000E+00      1          
   pname:kh1gr_inst:0_ptype:gr_pstyle:m_i:5_j:62_x:5625.00_y:6075.00_zone:1  log                   factor                1.0000000000E+00      2.0000000000E-01      5.0000000000E+00      kh1gr                 1.0000000000E+00      0.0000000000E+00      1          
   pname:kh1gr_inst:0_ptype:gr_pstyle:m_i:5_j:63_x:5715.00_y:6075.00_zone:1  log                   factor                1.0000000000E+00      2.0000000000E-01      5.0000000000E+00      kh1gr                 1.0000000000E+00      0.0000000000E+00      1          
   pname:kh1gr_inst:0_ptype:gr_pstyle:m_i:5_j:64_x:5805.00_y:6075.00_zone:1  log                   factor                1.0000000000E+00      2.0000000000E-01      5.0000000000E+00      kh1gr                 1.0000000000E+00      0.0000000000E+00      1          
   pname:kh1gr_inst:0_ptype:gr_pstyle:m_i:5_j:65_x:5895.00_y:6075.00_zone:1  log                   factor                1.0000000000E+00      2.0000000000E-01      5.0000000000E+00      kh1gr                 1.0000000000E+00      0.0000000000E+00      1          
   pname:kh1gr_inst:0_ptype:gr_pstyle:m_i:5_j:66_x:5985.00_y:6075.00_zone:1  log                   factor                1.0000000000E+00      2.0000000000E-01      5.0000000000E+00      kh1gr                 1.0000000000E+00      0.0000000000E+00      1          
   pname:kh1gr_inst:0_ptype:gr_pstyle:m_i:6_j:60_x:5445.00_y:5985.00_zone:1  log                   factor                1.0000000000E+00      2.0000000000E-01      5.0000000000E+00      kh1gr                 1.0000000000E+00      0.0000000000E+00      1          
   pname:kh1gr_inst:0_ptype:gr_pstyle:m_i:6_j:61_x:5535.00_y:5985.00_zone:1  log                   factor                1.0000000000E+00      2.0000000000E-01      5.0000000000E+00      kh1gr                 1.0000000000E+00      0.0000000000E+00      1          
   pname:kh1gr_inst:0_ptype:gr_pstyle:m_i:6_j:62_x:5625.00_y:5985.00_zone:1  log                   factor                1.0000000000E+00      2.0000000000E-01      5.0000000000E+00      kh1gr                 1.0000000000E+00      0.0000000000E+00      1          
   pname:kh1gr_inst:0_ptype:gr_pstyle:m_i:6_j:63_x:5715.00_y:5985.00_zone:1  log                   factor                1.0000000000E+00      2.0000000000E-01      5.0000000000E+00      kh1gr                 1.0000000000E+00      0.0000000000E+00      1          
   pname:kh1gr_inst:0_ptype:gr_pstyle:m_i:6_j:64_x:5805.00_y:5985.00_zone:1  log                   factor                1.0000000000E+00      2.0000000000E-01      5.0000000000E+00      kh1gr                 1.0000000000E+00      0.0000000000E+00      1          
   pname:kh1gr_inst:0_ptype:gr_pstyle:m_i:6_j:65_x:5895.00_y:5985.00_zone:1  log                   factor                1.0000000000E+00      2.0000000000E-01      5.0000000000E+00      kh1gr                 1.0000000000E+00      0.0000000000E+00      1          
   pname:kh1gr_inst:0_ptype:gr_pstyle:m_i:6_j:66_x:5985.00_y:5985.00_zone:1  log                   factor                1.0000000000E+00      2.0000000000E-01      5.0000000000E+00      kh1gr                 1.0000000000E+00      0.0000000000E+00      1          
   pname:kh1gr_inst:0_ptype:gr_pstyle:m_i:6_j:67_x:6075.00_y:5985.00_zone:1  log                   factor                1.0000000000E+00      2.0000000000E-01      5.0000000000E+00      kh1gr                 1.0000000000E+00      0.0000000000E+00      1          
   pname:kh1gr_inst:0_ptype:gr_pstyle:m_i:7_j:60_x:5445.00_y:5895.00_zone:1  log                   factor                1.0000000000E+00      2.0000000000E-01      5.0000000000E+00      kh1gr                 1.0000000000E+00      0.0000000000E+00      1          
   pname:kh1gr_inst:0_ptype:gr_pstyle:m_i:7_j:61_x:5535.00_y:5895.00_zone:1  log                   factor                1.0000000000E+00      2.0000000000E-01      5.0000000000E+00      kh1gr                 1.0000000000E+00      0.0000000000E+00      1          
   pname:kh1gr_inst:0_ptype:gr_pstyle:m_i:7_j:62_x:5625.00_y:5895.00_zone:1  log                   factor                1.0000000000E+00      2.0000000000E-01      5.0000000000E+00      kh1gr                 1.0000000000E+00      0.0000000000E+00      1          
   pname:kh1gr_inst:0_ptype:gr_pstyle:m_i:7_j:63_x:5715.00_y:5895.00_zone:1  log                   factor                1.0000000000E+00      2.0000000000E-01      5.0000000000E+00      kh1gr                 1.0000000000E+00      0.0000000000E+00      1          
   pname:kh1gr_inst:0_ptype:gr_pstyle:m_i:7_j:64_x:5805.00_y:5895.00_zone:1  log                   factor                1.0000000000E+00      2.0000000000E-01      5.0000000000E+00      kh1gr                 1.0000000000E+00      0.0000000000E+00      1          
   pname:kh1gr_inst:0_ptype:gr_pstyle:m_i:7_j:65_x:5895.00_y:5895.00_zone:1  log                   factor                1.0000000000E+00      2.0000000000E-01      5.0000000000E+00      kh1gr                 1.0000000000E+00      0.0000000000E+00      1          
   pname:kh1gr_inst:0_ptype:gr_pstyle:m_i:7_j:66_x:5985.00_y:5895.00_zone:1  log                   factor                1.0000000000E+00      2.0000000000E-01      5.0000000000E+00      kh1gr                 1.0000000000E+00      0.0000000000E+00      1          
   pname:kh1gr_inst:0_ptype:gr_pstyle:m_i:7_j:67_x:6075.00_y:5895.00_zone:1  log                   factor                1.0000000000E+00      2.0000000000E-01      5.0000000000E+00      kh1gr                 1.0000000000E+00      0.0000000000E+00      1          
   pname:kh1gr_inst:0_ptype:gr_pstyle:m_i:7_j:68_x:6165.00_y:5895.00_zone:1  log                   factor                1.0000000000E+00      2.0000000000E-01      5.0000000000E+00      kh1gr                 1.0000000000E+00      0.0000000000E+00      1          
   pname:kh1gr_inst:0_ptype:gr_pstyle:m_i:7_j:69_x:6255.00_y:5895.00_zone:1  log                   factor                1.0000000000E+00      2.0000000000E-01      5.0000000000E+00      kh1gr                 1.0000000000E+00      0.0000000000E+00      1          
   pname:kh1gr_inst:0_ptype:gr_pstyle:m_i:7_j:70_x:6345.00_y:5895.00_zone:1  log                   factor                1.0000000000E+00      2.0000000000E-01      5.0000000000E+00      kh1gr                 1.0000000000E+00      0.0000000000E+00      1          
   pname:kh1gr_inst:0_ptype:gr_pstyle:m_i:8_j:48_x:4365.00_y:5805.00_zone:1  log                   factor                1.0000000000E+00      2.0000000000E-01      5.0000000000E+00      kh1gr                 1.0000000000E+00      0.0000000000E+00      1          
   pname:kh1gr_inst:0_ptype:gr_pstyle:m_i:8_j:49_x:4455.00_y:5805.00_zone:1  log                   factor                1.0000000000E+00      2.0000000000E-01      5.0000000000E+00      kh1gr                 1.0000000000E+00      0.0000000000E+00      1          
   pname:kh1gr_inst:0_ptype:gr_pstyle:m_i:8_j:58_x:5265.00_y:5805.00_zone:1  log                   factor                1.0000000000E+00      2.0000000000E-01      5.0000000000E+00      kh1gr                 1.0000000000E+00      0.0000000000E+00      1          
   pname:kh1gr_inst:0_ptype:gr_pstyle:m_i:8_j:59_x:5355.00_y:5805.00_zone:1  log                   factor                1.0000000000E+00      2.0000000000E-01      5.0000000000E+00      kh1gr                 1.0000000000E+00      0.0000000000E+00      1          
   pname:kh1gr_inst:0_ptype:gr_pstyle:m_i:8_j:60_x:5445.00_y:5805.00_zone:1  log                   factor                1.0000000000E+00      2.0000000000E-01      5.0000000000E+00      kh1gr                 1.0000000000E+00      0.0000000000E+00      1          
   pname:kh1gr_inst:0_ptype:gr_pstyle:m_i:8_j:61_x:5535.00_y:5805.00_zone:1  log                   factor                1.0000000000E+00      2.0000000000E-01      5.0000000000E+00      kh1gr                 1.0000000000E+00      0.0000000000E+00      1          
   pname:kh1gr_inst:0_ptype:gr_pstyle:m_i:8_j:62_x:5625.00_y:5805.00_zone:1  log                   factor                1.0000000000E+00      2.0000000000E-01      5.0000000000E+00      kh1gr                 1.0000000000E+00      0.0000000000E+00      1          
   pname:kh1gr_inst:0_ptype:gr_pstyle:m_i:8_j:63_x:5715.00_y:5805.00_zone:1  log                   factor                1.0000000000E+00      2.0000000000E-01      5.0000000000E+00      kh1gr                 1.0000000000E+00      0.0000000000E+00      1          
   pname:kh1gr_inst:0_ptype:gr_pstyle:m_i:8_j:64_x:5805.00_y:5805.00_zone:1  log                   factor                1.0000000000E+00      2.0000000000E-01      5.0000000000E+00      kh1gr                 1.0000000000E+00      0.0000000000E+00      1          
   pname:kh1gr_inst:0_ptype:gr_pstyle:m_i:8_j:65_x:5895.00_y:5805.00_zone:1  log                   factor                1.0000000000E+00      2.0000000000E-01      5.0000000000E+00      kh1gr                 1.0000000000E+00      0.0000000000E+00      1          
   pname:kh1gr_inst:0_ptype:gr_pstyle:m_i:8_j:66_x:5985.00_y:5805.00_zone:1  log                   factor                1.0000000000E+00      2.0000000000E-01      5.0000000000E+00      kh1gr                 1.0000000000E+00      0.0000000000E+00      1          
   pname:kh1gr_inst:0_ptype:gr_pstyle:m_i:8_j:67_x:6075.00_y:5805.00_zone:1  log                   factor                1.0000000000E+00      2.0000000000E-01      5.0000000000E+00      kh1gr                 1.0000000000E+00      0.0000000000E+00      1          
   pname:kh1gr_inst:0_ptype:gr_pstyle:m_i:8_j:68_x:6165.00_y:5805.00_zone:1  log                   factor                1.0000000000E+00      2.0000000000E-01      5.0000000000E+00      kh1gr                 1.0000000000E+00      0.0000000000E+00      1          
   pname:kh1gr_inst:0_ptype:gr_pstyle:m_i:8_j:69_x:6255.00_y:5805.00_zone:1  log                   factor                1.0000000000E+00      2.0000000000E-01      5.0000000000E+00      kh1gr                 1.0000000000E+00      0.0000000000E+00      1          
   pname:kh1gr_inst:0_ptype:gr_pstyle:m_i:8_j:70_x:6345.00_y:5805.00_zone:1  log                   factor                1.0000000000E+00      2.0000000000E-01      5.0000000000E+00      kh1gr                 1.0000000000E+00      0.0000000000E+00      1          
   pname:kh1gr_inst:0_ptype:gr_pstyle:m_i:8_j:71_x:6435.00_y:5805.00_zone:1  log                   factor                1.0000000000E+00      2.0000000000E-01      5.0000000000E+00      kh1gr                 1.0000000000E+00      0.0000000000E+00      1          
   pname:kh1gr_inst:0_ptype:gr_pstyle:m_i:8_j:72_x:6525.00_y:5805.00_zone:1  log                   factor                1.0000000000E+00      2.0000000000E-01      5.0000000000E+00      kh1gr                 1.0000000000E+00      0.0000000000E+00      1          
   pname:kh1gr_inst:0_ptype:gr_pstyle:m_i:8_j:73_x:6615.00_y:5805.00_zone:1  log                   factor                1.0000000000E+00      2.0000000000E-01      5.0000000000E+00      kh1gr                 1.0000000000E+00      0.0000000000E+00      1          
   pname:kh1gr_inst:0_ptype:gr_pstyle:m_i:8_j:74_x:6705.00_y:5805.00_zone:1  log                   factor                1.0000000000E+00      2.0000000000E-01      5.0000000000E+00      kh1gr                 1.0000000000E+00      0.0000000000E+00      1          
   pname:kh1gr_inst:0_ptype:gr_pstyle:m_i:9_j:47_x:4275.00_y:5715.00_zone:1  log                   factor                1.0000000000E+00      2.0000000000E-01      5.0000000000E+00      kh1gr                 1.0000000000E+00      0.0000000000E+00      1          
   pname:kh1gr_inst:0_ptype:gr_pstyle:m_i:9_j:48_x:4365.00_y:5715.00_zone:1  log                   factor                1.0000000000E+00      2.0000000000E-01      5.0000000000E+00      kh1gr                 1.0000000000E+00      0.0000000000E+00      1          
   pname:kh1gr_inst:0_ptype:gr_pstyle:m_i:9_j:49_x:4455.00_y:5715.00_zone:1  log                   factor                1.0000000000E+00      2.0000000000E-01      5.0000000000E+00      kh1gr                 1.0000000000E+00      0.0000000000E+00      1          
   pname:kh1gr_inst:0_ptype:gr_pstyle:m_i:9_j:50_x:4545.00_y:5715.00_zone:1  log                   factor                1.0000000000E+00      2.0000000000E-01      5.0000000000E+00      kh1gr                 1.0000000000E+00      0.0000000000E+00      1          
   pname:kh1gr_inst:0_ptype:gr_pstyle:m_i:9_j:51_x:4635.00_y:5715.00_zone:1  log                   factor                1.0000000000E+00      2.0000000000E-01      5.0000000000E+00      kh1gr                 1.0000000000E+00      0.0000000000E+00      1          
   pname:kh1gr_inst:0_ptype:gr_pstyle:m_i:9_j:52_x:4725.00_y:5715.00_zone:1  log                   factor                1.0000000000E+00      2.0000000000E-01      5.0000000000E+00      kh1gr                 1.0000000000E+00      0.0000000000E+00      1          
   pname:kh1gr_inst:0_ptype:gr_pstyle:m_i:9_j:56_x:5085.00_y:5715.00_zone:1  log                   factor                1.0000000000E+00      2.0000000000E-01      5.0000000000E+00      kh1gr                 1.0000000000E+00      0.0000000000E+00      1          
   pname:kh1gr_inst:0_ptype:gr_pstyle:m_i:9_j:57_x:5175.00_y:5715.00_zone:1  log                   factor                1.0000000000E+00      2.0000000000E-01      5.0000000000E+00      kh1gr                 1.0000000000E+00      0.0000000000E+00      1          
   pname:kh1gr_inst:0_ptype:gr_pstyle:m_i:9_j:58_x:5265.00_y:5715.00_zone:1  log                   factor                1.0000000000E+00      2.0000000000E-01      5.0000000000E+00      kh1gr                 1.0000000000E+00      0.0000000000E+00      1          
   pname:kh1gr_inst:0_ptype:gr_pstyle:m_i:9_j:59_x:5355.00_y:5715.00_zone:1  log                   factor                1.0000000000E+00      2.0000000000E-01      5.0000000000E+00      kh1gr                 1.0000000000E+00      0.0000000000E+00      1          
   pname:kh1gr_inst:0_ptype:gr_pstyle:m_i:9_j:60_x:5445.00_y:5715.00_zone:1  log                   factor                1.0000000000E+00      2.0000000000E-01      5.0000000000E+00      kh1gr                 1.0000000000E+00      0.0000000000E+00      1          
   pname:kh1gr_inst:0_ptype:gr_pstyle:m_i:9_j:61_x:5535.00_y:5715.00_zone:1  log                   factor                1.0000000000E+00      2.0000000000E-01      5.0000000000E+00      kh1gr                 1.0000000000E+00      0.0000000000E+00      1          
   pname:kh1gr_inst:0_ptype:gr_pstyle:m_i:9_j:62_x:5625.00_y:5715.00_zone:1  log                   factor                1.0000000000E+00      2.0000000000E-01      5.0000000000E+00      kh1gr                 1.0000000000E+00      0.0000000000E+00      1          
   pname:kh1gr_inst:0_ptype:gr_pstyle:m_i:9_j:63_x:5715.00_y:5715.00_zone:1  log                   factor                1.0000000000E+00      2.0000000000E-01      5.0000000000E+00      kh1gr                 1.0000000000E+00      0.0000000000E+00      1          
   pname:kh1gr_inst:0_ptype:gr_pstyle:m_i:9_j:64_x:5805.00_y:5715.00_zone:1  log                   factor                1.0000000000E+00      2.0000000000E-01      5.0000000000E+00      kh1gr                 1.0000000000E+00      0.0000000000E+00      1          
   pname:kh1gr_inst:0_ptype:gr_pstyle:m_i:9_j:65_x:5895.00_y:5715.00_zone:1  log                   factor                1.0000000000E+00      2.0000000000E-01      5.0000000000E+00      kh1gr                 1.0000000000E+00      0.0000000000E+00      1          
   pname:kh1gr_inst:0_ptype:gr_pstyle:m_i:9_j:66_x:5985.00_y:5715.00_zone:1  log                   factor                1.0000000000E+00      2.0000000000E-01      5.0000000000E+00      kh1gr                 1.0000000000E+00      0.0000000000E+00      1          
   pname:kh1gr_inst:0_ptype:gr_pstyle:m_i:9_j:67_x:6075.00_y:5715.00_zone:1  log                   factor                1.0000000000E+00      2.0000000000E-01      5.0000000000E+00      kh1gr                 1.0000000000E+00      0.0000000000E+00      1          
   pname:kh1gr_inst:0_ptype:gr_pstyle:m_i:9_j:68_x:6165.00_y:5715.00_zone:1  log                   factor                1.0000000000E+00      2.0000000000E-01      5.0000000000E+00      kh1gr                 1.0000000000E+00      0.0000000000E+00      1          
   pname:kh1gr_inst:0_ptype:gr_pstyle:m_i:9_j:69_x:6255.00_y:5715.00_zone:1  log                   factor                1.0000000000E+00      2.0000000000E-01      5.0000000000E+00      kh1gr                 1.0000000000E+00      0.0000000000E+00      1          
   pname:kh1gr_inst:0_ptype:gr_pstyle:m_i:9_j:70_x:6345.00_y:5715.00_zone:1  log                   factor                1.0000000000E+00      2.0000000000E-01      5.0000000000E+00      kh1gr                 1.0000000000E+00      0.0000000000E+00      1          
   pname:kh1gr_inst:0_ptype:gr_pstyle:m_i:9_j:71_x:6435.00_y:5715.00_zone:1  log                   factor                1.0000000000E+00      2.0000000000E-01      5.0000000000E+00      kh1gr                 1.0000000000E+00      0.0000000000E+00      1          
   pname:kh1gr_inst:0_ptype:gr_pstyle:m_i:9_j:72_x:6525.00_y:5715.00_zone:1  log                   factor                1.0000000000E+00      2.0000000000E-01      5.0000000000E+00      kh1gr                 1.0000000000E+00      0.0000000000E+00      1          
   pname:kh1gr_inst:0_ptype:gr_pstyle:m_i:9_j:73_x:6615.00_y:5715.00_zone:1  log                   factor                1.0000000000E+00      2.0000000000E-01      5.0000000000E+00      kh1gr                 1.0000000000E+00      0.0000000000E+00      1          
   pname:kh1gr_inst:0_ptype:gr_pstyle:m_i:9_j:74_x:6705.00_y:5715.00_zone:1  log                   factor                1.0000000000E+00      2.0000000000E-01      5.0000000000E+00      kh1gr                 1.0000000000E+00      0.0000000000E+00      1          
   pname:kh1gr_inst:0_ptype:gr_pstyle:m_i:9_j:75_x:6795.00_y:5715.00_zone:1  log                   factor                1.0000000000E+00      2.0000000000E-01      5.0000000000E+00      kh1gr                 1.0000000000E+00      0.0000000000E+00      1          
  pname:kh1gr_inst:0_ptype:gr_pstyle:m_i:10_j:46_x:4185.00_y:5625.00_zone:1  log                   factor                1.0000000000E+00      2.0000000000E-01      5.0000000000E+00      kh1gr                 1.0000000000E+00      0.0000000000E+00      1          
  pname:kh1gr_inst:0_ptype:gr_pstyle:m_i:10_j:47_x:4275.00_y:5625.00_zone:1  log                   factor                1.0000000000E+00      2.0000000000E-01      5.0000000000E+00      kh1gr                 1.0000000000E+00      0.0000000000E+00      1          
  pname:kh1gr_inst:0_ptype:gr_pstyle:m_i:10_j:48_x:4365.00_y:5625.00_zone:1  log                   factor                1.0000000000E+00      2.0000000000E-01      5.0000000000E+00      kh1gr                 1.0000000000E+00      0.0000000000E+00      1          
  pname:kh1gr_inst:0_ptype:gr_pstyle:m_i:10_j:49_x:4455.00_y:5625.00_zone:1  log                   factor                1.0000000000E+00      2.0000000000E-01      5.0000000000E+00      kh1gr                 1.0000000000E+00      0.0000000000E+00      1          
  pname:kh1gr_inst:0_ptype:gr_pstyle:m_i:10_j:50_x:4545.00_y:5625.00_zone:1  log                   factor                1.0000000000E+00      2.0000000000E-01      5.0000000000E+00      kh1gr                 1.0000000000E+00      0.0000000000E+00      1          
  pname:kh1gr_inst:0_ptype:gr_pstyle:m_i:10_j:51_x:4635.00_y:5625.00_zone:1  log                   factor                1.0000000000E+00      2.0000000000E-01      5.0000000000E+00      kh1gr                 1.0000000000E+00      0.0000000000E+00      1          
  pname:kh1gr_inst:0_ptype:gr_pstyle:m_i:10_j:52_x:4725.00_y:5625.00_zone:1  log                   factor                1.0000000000E+00      2.0000000000E-01      5.0000000000E+00      kh1gr                 1.0000000000E+00      0.0000000000E+00      1          
  pname:kh1gr_inst:0_ptype:gr_pstyle:m_i:10_j:53_x:4815.00_y:5625.00_zone:1  log                   factor                1.0000000000E+00      2.0000000000E-01      5.0000000000E+00      kh1gr                 1.0000000000E+00      0.0000000000E+00      1          
  pname:kh1gr_inst:0_ptype:gr_pstyle:m_i:10_j:54_x:4905.00_y:5625.00_zone:1  log                   factor                1.0000000000E+00      2.0000000000E-01      5.0000000000E+00      kh1gr                 1.0000000000E+00      0.0000000000E+00      1          
  pname:kh1gr_inst:0_ptype:gr_pstyle:m_i:10_j:55_x:4995.00_y:5625.00_zone:1  log                   factor                1.0000000000E+00      2.0000000000E-01      5.0000000000E+00      kh1gr                 1.0000000000E+00      0.0000000000E+00      1          
  pname:kh1gr_inst:0_ptype:gr_pstyle:m_i:10_j:56_x:5085.00_y:5625.00_zone:1  log                   factor                1.0000000000E+00      2.0000000000E-01      5.0000000000E+00      kh1gr                 1.0000000000E+00      0.0000000000E+00      1          
  pname:kh1gr_inst:0_ptype:gr_pstyle:m_i:10_j:57_x:5175.00_y:5625.00_zone:1  log                   factor                1.0000000000E+00      2.0000000000E-01      5.0000000000E+00      kh1gr                 1.0000000000E+00      0.0000000000E+00      1          
  pname:kh1gr_inst:0_ptype:gr_pstyle:m_i:10_j:58_x:5265.00_y:5625.00_zone:1  log                   factor                1.0000000000E+00      2.0000000000E-01      5.0000000000E+00      kh1gr                 1.0000000000E+00      0.0000000000E+00      1          
  pname:kh1gr_inst:0_ptype:gr_pstyle:m_i:10_j:59_x:5355.00_y:5625.00_zone:1  log                   factor                1.0000000000E+00      2.0000000000E-01      5.0000000000E+00      kh1gr                 1.0000000000E+00      0.0000000000E+00      1          
  pname:kh1gr_inst:0_ptype:gr_pstyle:m_i:10_j:60_x:5445.00_y:5625.00_zone:1  log                   factor                1.0000000000E+00      2.0000000000E-01      5.0000000000E+00      kh1gr                 1.0000000000E+00      0.0000000000E+00      1          
  pname:kh1gr_inst:0_ptype:gr_pstyle:m_i:10_j:61_x:5535.00_y:5625.00_zone:1  log                   factor                1.0000000000E+00      2.0000000000E-01      5.0000000000E+00      kh1gr                 1.0000000000E+00      0.0000000000E+00      1          
  pname:kh1gr_inst:0_ptype:gr_pstyle:m_i:10_j:62_x:5625.00_y:5625.00_zone:1  log                   factor                1.0000000000E+00      2.0000000000E-01      5.0000000000E+00      kh1gr                 1.0000000000E+00      0.0000000000E+00      1          
  pname:kh1gr_inst:0_ptype:gr_pstyle:m_i:10_j:63_x:5715.00_y:5625.00_zone:1  log                   factor                1.0000000000E+00      2.0000000000E-01      5.0000000000E+00      kh1gr                 1.0000000000E+00      0.0000000000E+00      1          
  pname:kh1gr_inst:0_ptype:gr_pstyle:m_i:10_j:64_x:5805.00_y:5625.00_zone:1  log                   factor                1.0000000000E+00      2.0000000000E-01      5.0000000000E+00      kh1gr                 1.0000000000E+00      0.0000000000E+00      1          
  pname:kh1gr_inst:0_ptype:gr_pstyle:m_i:10_j:65_x:5895.00_y:5625.00_zone:1  log                   factor                1.0000000000E+00      2.0000000000E-01      5.0000000000E+00      kh1gr                 1.0000000000E+00      0.0000000000E+00      1          