# File generated by Flopy version 3.8.2 on 01/21/2025 at 15:49:47.
BEGIN options
END options

BEGIN griddata
  strt
    OPEN/CLOSE 'strt1.txt' FACTOR  1.0
END griddata

